PV_Scenarios/PV_combined/scenario_3_combined/PV_combined90per.txt
New PVSystem.PV_1 phases=1 bus1=G2000RN2800_N274196_sec_4.3 kV=0.24 kVA=2.76 irradiance=1 Pmpp=2.3 %cutin=0.1 %cutout=0.1
New PVSystem.PV_2 phases=1 bus1=G2000SK5500_N274137_sec_5.2 kV=0.24 kVA=6.12 irradiance=1 Pmpp=5.1 %cutin=0.1 %cutout=0.1
New PVSystem.PV_3 phases=1 bus1=G2000TJ2700_N274103_sec_3.3 kV=0.24 kVA=3.24 irradiance=1 Pmpp=2.7 %cutin=0.1 %cutout=0.1
New PVSystem.PV_4 phases=1 bus1=G2000VJ0200_N283716_sec_2.2 kV=0.24 kVA=5.4 irradiance=1 Pmpp=4.5 %cutin=0.1 %cutout=0.1
New PVSystem.PV_5 phases=1 bus1=G2000XH7500_N283636_sec_3.3 kV=0.24 kVA=2.64 irradiance=1 Pmpp=2.2 %cutin=0.1 %cutout=0.1
New PVSystem.PV_6 phases=1 bus1=G2000XJ7800_N283732_sec_1.2 kV=0.24 kVA=8.04 irradiance=1 Pmpp=6.7 %cutin=0.1 %cutout=0.1
New PVSystem.PV_7 phases=1 bus1=G2001QO2100_N274563_sec_2.2 kV=0.24 kVA=12.12 irradiance=1 Pmpp=10.1 %cutin=0.1 %cutout=0.1
New PVSystem.PV_8 phases=1 bus1=G2001RJ3400_N274458_sec_3.2 kV=0.24 kVA=10.44 irradiance=1 Pmpp=8.7 %cutin=0.1 %cutout=0.1
New PVSystem.PV_9 phases=1 bus1=G2001RJ9700_N274469_sec_4.2 kV=0.24 kVA=8.5157 irradiance=1 Pmpp=7.0964 %cutin=0.1 %cutout=0.1
New PVSystem.PV_10 phases=1 bus1=G2001RM3600_N274547_sec_2.2 kV=0.24 kVA=12.12 irradiance=1 Pmpp=10.1 %cutin=0.1 %cutout=0.1
New PVSystem.PV_11 phases=1 bus1=G2001SA7400_N274224_sec_3.3 kV=0.24 kVA=4.32 irradiance=1 Pmpp=3.6 %cutin=0.1 %cutout=0.1
New PVSystem.PV_12 phases=1 bus1=G2001WC7300_N283986_sec_6.3 kV=0.24 kVA=0 irradiance=1 Pmpp=0 %cutin=0.1 %cutout=0.1
New PVSystem.PV_13 phases=1 bus1=G2001WD4700_N284012_sec_3.3 kV=0.24 kVA=4.2 irradiance=1 Pmpp=3.5 %cutin=0.1 %cutout=0.1
New PVSystem.PV_14 phases=1 bus1=G2001WF4800_N284097_sec_1.2 kV=0.24 kVA=8.4 irradiance=1 Pmpp=7 %cutin=0.1 %cutout=0.1
New PVSystem.PV_15 phases=1 bus1=G2001XB6700_N283943_sec_6.3 kV=0.24 kVA=8.28 irradiance=1 Pmpp=6.9 %cutin=0.1 %cutout=0.1
New PVSystem.PV_16 phases=1 bus1=G2001YA0800_N283921_sec_5.3 kV=0.24 kVA=5.88 irradiance=1 Pmpp=4.9 %cutin=0.1 %cutout=0.1
New PVSystem.PV_17 phases=1 bus1=G2100AG8700_N283594_sec_4.3 kV=0.24 kVA=1.8 irradiance=1 Pmpp=1.5 %cutin=0.1 %cutout=0.1
New PVSystem.PV_18 phases=1 bus1=G2100AG8700_N283594_sec_6.3 kV=0.24 kVA=3.96 irradiance=1 Pmpp=3.3 %cutin=0.1 %cutout=0.1
New PVSystem.PV_19 phases=1 bus1=G2100AI4900_N283724_sec_4.2 kV=0.24 kVA=9.8604 irradiance=1 Pmpp=8.217 %cutin=0.1 %cutout=0.1
New PVSystem.PV_20 phases=1 bus1=G2100BE8900_N283564_sec_5.3 kV=0.24 kVA=3.72 irradiance=1 Pmpp=3.1 %cutin=0.1 %cutout=0.1
New PVSystem.PV_21 phases=1 bus1=G2100BH6100_N283623_sec_4.3 kV=0.24 kVA=4.08 irradiance=1 Pmpp=3.4 %cutin=0.1 %cutout=0.1
New PVSystem.PV_22 phases=1 bus1=G2100BJ7400_N283728_sec_2.2 kV=0.24 kVA=4.081 irradiance=1 Pmpp=3.4008 %cutin=0.1 %cutout=0.1
New PVSystem.PV_23 phases=1 bus1=G2100BL8300_N283778_sec_6.1 kV=0.24 kVA=4.44 irradiance=1 Pmpp=3.7 %cutin=0.1 %cutout=0.1
New PVSystem.PV_24 phases=1 bus1=G2100CH1800_N1385522_sec_6.3 kV=0.24 kVA=4.32 irradiance=1 Pmpp=3.6 %cutin=0.1 %cutout=0.1
New PVSystem.PV_25 phases=1 bus1=G2100CH7400_N283632_sec_23.3 kV=0.24 kVA=1.8 irradiance=1 Pmpp=1.5 %cutin=0.1 %cutout=0.1
New PVSystem.PV_26 phases=1 bus1=G2100CJ3000_N283718_sec_2.2 kV=0.24 kVA=5.88 irradiance=1 Pmpp=4.9 %cutin=0.1 %cutout=0.1
New PVSystem.PV_27 phases=1 bus1=G2100CN9200_N283841_sec_1.3 kV=0.24 kVA=1.92 irradiance=1 Pmpp=1.6 %cutin=0.1 %cutout=0.1
New PVSystem.PV_28 phases=1 bus1=G2100DG3700_N283614_sec_16.3 kV=0.24 kVA=2.52 irradiance=1 Pmpp=2.1 %cutin=0.1 %cutout=0.1
New PVSystem.PV_29 phases=1 bus1=G2100DH9500_N292300_sec_5.3 kV=0.24 kVA=3.36 irradiance=1 Pmpp=2.8 %cutin=0.1 %cutout=0.1
New PVSystem.PV_30 phases=1 bus1=G2100DN4800_N283861_sec_10.3 kV=0.24 kVA=0.72 irradiance=1 Pmpp=0.6 %cutin=0.1 %cutout=0.1
New PVSystem.PV_31 phases=1 bus1=G2100EN2200_N292457_sec_20.3 kV=0.24 kVA=5.04 irradiance=1 Pmpp=4.2 %cutin=0.1 %cutout=0.1
New PVSystem.PV_32 phases=1 bus1=G2100EN7100_N292449_sec_1.3 kV=0.24 kVA=2.88 irradiance=1 Pmpp=2.4 %cutin=0.1 %cutout=0.1
New PVSystem.PV_33 phases=1 bus1=G2100EN8600_N292479_sec_10.3 kV=0.24 kVA=1.68 irradiance=1 Pmpp=1.4 %cutin=0.1 %cutout=0.1
New PVSystem.PV_34 phases=1 bus1=G2100EO1300_N292510_sec_1.3 kV=0.24 kVA=1.44 irradiance=1 Pmpp=1.2 %cutin=0.1 %cutout=0.1
New PVSystem.PV_35 phases=3 conn = delta bus1=G2100GM6700_N292446_sec_3.1.2.3 kV=0.48 kVA=12 irradiance=1 Pmpp=10 %cutin=0.1 %cutout=0.1
New PVSystem.PV_36 phases=1 bus1=G2100GM9700_N292423_sec_25.3 kV=0.24 kVA=1.44 irradiance=1 Pmpp=1.2 %cutin=0.1 %cutout=0.1
New PVSystem.PV_37 phases=1 bus1=G2100GN4300_N292461_sec_5.1 kV=0.24 kVA=1.44 irradiance=1 Pmpp=1.2 %cutin=0.1 %cutout=0.1
New PVSystem.PV_38 phases=3 conn = delta bus1=G2100HG5500_N292272_sec_1.1.2.3 kV=0.48 kVA=144.12 irradiance=1 Pmpp=120.1 %cutin=0.1 %cutout=0.1
New PVSystem.PV_39 phases=1 bus1=G2100HN5600_N292453_sec_41.3 kV=0.24 kVA=3.72 irradiance=1 Pmpp=3.1 %cutin=0.1 %cutout=0.1
New PVSystem.PV_40 phases=1 bus1=G2100HN5600_N292453_sec_57.3 kV=0.24 kVA=2.04 irradiance=1 Pmpp=1.7 %cutin=0.1 %cutout=0.1
New PVSystem.PV_41 phases=1 bus1=G2100IL1000_N292412_sec_14.3 kV=0.24 kVA=1.44 irradiance=1 Pmpp=1.2 %cutin=0.1 %cutout=0.1
New PVSystem.PV_42 phases=1 bus1=G2100IN7700_N292438_sec_9.3 kV=0.24 kVA=2.4 irradiance=1 Pmpp=2 %cutin=0.1 %cutout=0.1
New PVSystem.PV_43 phases=1 bus1=G2100IN7700_N292438_sec_28.3 kV=0.24 kVA=1.44 irradiance=1 Pmpp=1.2 %cutin=0.1 %cutout=0.1
New PVSystem.PV_44 phases=1 bus1=G2100ON7400_N300547_sec_2.1 kV=0.24 kVA=4.44 irradiance=1 Pmpp=3.7 %cutin=0.1 %cutout=0.1
New PVSystem.PV_45 phases=1 bus1=G2100OO0200_N300573_sec_5.1 kV=0.24 kVA=6.84 irradiance=1 Pmpp=5.7 %cutin=0.1 %cutout=0.1
New PVSystem.PV_46 phases=1 bus1=G2100PO8100_N300593_sec_3.1 kV=0.24 kVA=4.44 irradiance=1 Pmpp=3.7 %cutin=0.1 %cutout=0.1
New PVSystem.PV_47 phases=1 bus1=G2100QM2700_N300529_sec_5.2 kV=0.24 kVA=6 irradiance=1 Pmpp=5 %cutin=0.1 %cutout=0.1
New PVSystem.PV_48 phases=1 bus1=G2100SP2100_N312536_sec_8.2 kV=0.24 kVA=8.64 irradiance=1 Pmpp=7.2 %cutin=0.1 %cutout=0.1
New PVSystem.PV_49 phases=3 conn = delta bus1=G2100TO3200_N312445_sec_1.1.2.3 kV=0.48 kVA=294.8313 irradiance=1 Pmpp=245.6927 %cutin=0.1 %cutout=0.1
New PVSystem.PV_50 phases=1 bus1=G2101AI2000_N284180_sec_3.3 kV=0.24 kVA=7.56 irradiance=1 Pmpp=6.3 %cutin=0.1 %cutout=0.1
New PVSystem.PV_51 phases=1 bus1=G2101BB3500_N283890_sec_2.1 kV=0.24 kVA=4.44 irradiance=1 Pmpp=3.7 %cutin=0.1 %cutout=0.1
New PVSystem.PV_52 phases=1 bus1=G2101BM0000_N284274_sec_2.1 kV=0.24 kVA=9.0507 irradiance=1 Pmpp=7.5422 %cutin=0.1 %cutout=0.1
New PVSystem.PV_53 phases=1 bus1=G2101CB7700_N283923_sec_2.1 kV=0.24 kVA=3.72 irradiance=1 Pmpp=3.1 %cutin=0.1 %cutout=0.1
New PVSystem.PV_54 phases=3 conn = delta bus1=G2101DA7200_N292541_sec_1.1.2.3 kV=0.48 kVA=36.84 irradiance=1 Pmpp=30.7 %cutin=0.1 %cutout=0.1
New PVSystem.PV_55 phases=1 bus1=G2101DB2500_N283939_sec_3.1 kV=0.24 kVA=7.2 irradiance=1 Pmpp=6 %cutin=0.1 %cutout=0.1
New PVSystem.PV_56 phases=1 bus1=G2101DB9200_N283929_sec_3.1 kV=0.24 kVA=5.16 irradiance=1 Pmpp=4.3 %cutin=0.1 %cutout=0.1
New PVSystem.PV_57 phases=1 bus1=G2101EM2300_N284270_sec_2.1 kV=0.24 kVA=4.44 irradiance=1 Pmpp=3.7 %cutin=0.1 %cutout=0.1
New PVSystem.PV_58 phases=1 bus1=G2101EO8900_N292863_sec_2.1 kV=0.24 kVA=6.12 irradiance=1 Pmpp=5.1 %cutin=0.1 %cutout=0.1
New PVSystem.PV_59 phases=1 bus1=G2101FD9100_N292643_sec_11.1 kV=0.24 kVA=1.92 irradiance=1 Pmpp=1.6 %cutin=0.1 %cutout=0.1
New PVSystem.PV_60 phases=1 bus1=G2101FD9100_N292643_sec_20.1 kV=0.24 kVA=7.44 irradiance=1 Pmpp=6.2 %cutin=0.1 %cutout=0.1
New PVSystem.PV_61 phases=1 bus1=G2101FJ6800_N284227_sec_2.1 kV=0.24 kVA=6.1324 irradiance=1 Pmpp=5.1104 %cutin=0.1 %cutout=0.1
New PVSystem.PV_62 phases=1 bus1=G2101GD1300_N292637_sec_10.1 kV=0.24 kVA=3.24 irradiance=1 Pmpp=2.7 %cutin=0.1 %cutout=0.1
New PVSystem.PV_63 phases=1 bus1=G2101GD5100_N292637_sec_5.1 kV=0.24 kVA=2.76 irradiance=1 Pmpp=2.3 %cutin=0.1 %cutout=0.1
New PVSystem.PV_64 phases=1 bus1=G2101GN0600_N292858_sec_3.2 kV=0.24 kVA=7.8442 irradiance=1 Pmpp=6.5368 %cutin=0.1 %cutout=0.1
New PVSystem.PV_65 phases=1 bus1=G2101HB3800_N292598_sec_8.1 kV=0.24 kVA=3.84 irradiance=1 Pmpp=3.2 %cutin=0.1 %cutout=0.1
New PVSystem.PV_66 phases=1 bus1=G2101HB7500_N292585_sec_1.1 kV=0.24 kVA=3.36 irradiance=1 Pmpp=2.8 %cutin=0.1 %cutout=0.1
New PVSystem.PV_67 phases=1 bus1=G2101HD2900_N292658_sec_6.1 kV=0.24 kVA=2.04 irradiance=1 Pmpp=1.7 %cutin=0.1 %cutout=0.1
New PVSystem.PV_68 phases=1 bus1=G2101HI2400_N292772_sec_1.2 kV=0.24 kVA=5.5063 irradiance=1 Pmpp=4.5886 %cutin=0.1 %cutout=0.1
New PVSystem.PV_69 phases=1 bus1=G2101HJ5200_N292788_sec_1.2 kV=0.24 kVA=9.0003 irradiance=1 Pmpp=7.5002 %cutin=0.1 %cutout=0.1
New PVSystem.PV_70 phases=1 bus1=G2101KA2300_N300631_sec_5.1 kV=0.24 kVA=3.6 irradiance=1 Pmpp=3 %cutin=0.1 %cutout=0.1
New PVSystem.PV_71 phases=1 bus1=G2101KA3900_N300679_sec_5.1 kV=0.24 kVA=3.24 irradiance=1 Pmpp=2.7 %cutin=0.1 %cutout=0.1
New PVSystem.PV_72 phases=1 bus1=G2101OB6900_N300737_sec_4.3 kV=0.24 kVA=3.36 irradiance=1 Pmpp=2.8 %cutin=0.1 %cutout=0.1
New PVSystem.PV_73 phases=1 bus1=G2101QC1100_N300736_sec_3.3 kV=0.24 kVA=3.84 irradiance=1 Pmpp=3.2 %cutin=0.1 %cutout=0.1
New PVSystem.PV_74 phases=1 bus1=G2101SA6800_N312536_sec_9.2 kV=0.24 kVA=5.8189 irradiance=1 Pmpp=4.849 %cutin=0.1 %cutout=0.1
New PVSystem.PV_75 phases=1 bus1=G2101SB1800_N312602_sec_1.1 kV=0.24 kVA=4.68 irradiance=1 Pmpp=3.9 %cutin=0.1 %cutout=0.1
New PVSystem.PV_76 phases=1 bus1=G2102AE4600_N284351_sec_1.1 kV=0.24 kVA=6.9786 irradiance=1 Pmpp=5.8155 %cutin=0.1 %cutout=0.1
New PVSystem.PV_77 phases=1 bus1=G2102CF4600_N284377_sec_3.1 kV=0.24 kVA=4.4013 irradiance=1 Pmpp=3.6678 %cutin=0.1 %cutout=0.1
New PVSystem.PV_78 phases=1 bus1=G2102DA9200_N284319_sec_1.1 kV=0.24 kVA=10.7262 irradiance=1 Pmpp=8.9385 %cutin=0.1 %cutout=0.1
New PVSystem.PV_79 phases=1 bus1=G2000SO1800_N274227_sec_4.3 kV=0.24 kVA=6 irradiance=1 Pmpp=5 %cutin=0.1 %cutout=0.1
New PVSystem.PV_80 phases=1 bus1=G2000TL1200_N283789_sec_2.2 kV=0.24 kVA=5.28 irradiance=1 Pmpp=4.4 %cutin=0.1 %cutout=0.1
New PVSystem.PV_81 phases=1 bus1=G2000UI5400_N283699_sec_4.3 kV=0.24 kVA=5.4 irradiance=1 Pmpp=4.5 %cutin=0.1 %cutout=0.1
New PVSystem.PV_82 phases=1 bus1=G2000UJ3600_N283731_sec_5.2 kV=0.24 kVA=6.24 irradiance=1 Pmpp=5.2 %cutin=0.1 %cutout=0.1
New PVSystem.PV_83 phases=1 bus1=G2000VH9500_N283675_sec_1.2 kV=0.24 kVA=7.0984 irradiance=1 Pmpp=5.9153 %cutin=0.1 %cutout=0.1
New PVSystem.PV_84 phases=1 bus1=G2000VH9500_N283675_sec_9.2 kV=0.24 kVA=7.8 irradiance=1 Pmpp=6.5 %cutin=0.1 %cutout=0.1
New PVSystem.PV_85 phases=1 bus1=G2000XK5800_N283764_sec_1.3 kV=0.24 kVA=1.92 irradiance=1 Pmpp=1.6 %cutin=0.1 %cutout=0.1
New PVSystem.PV_86 phases=1 bus1=G2000XL1500_N283787_sec_2.1 kV=0.24 kVA=3.24 irradiance=1 Pmpp=2.7 %cutin=0.1 %cutout=0.1
New PVSystem.PV_87 phases=1 bus1=G2001RH4100_N274394_sec_1.2 kV=0.24 kVA=0.12 irradiance=1 Pmpp=0.1 %cutin=0.1 %cutout=0.1
New PVSystem.PV_88 phases=1 bus1=G2001RH4100_N274394_sec_7.2 kV=0.24 kVA=16.3956 irradiance=1 Pmpp=13.663 %cutin=0.1 %cutout=0.1
New PVSystem.PV_89 phases=1 bus1=G2001RM3600_N274547_sec_5.2 kV=0.24 kVA=14.9558 irradiance=1 Pmpp=12.4632 %cutin=0.1 %cutout=0.1
New PVSystem.PV_90 phases=1 bus1=G2001SH1900_N1347089_sec_2.1 kV=0.24 kVA=5.76 irradiance=1 Pmpp=4.8 %cutin=0.1 %cutout=0.1
New PVSystem.PV_91 phases=1 bus1=G2001SL0100_N274540_sec_4.2 kV=0.24 kVA=11.4 irradiance=1 Pmpp=9.5 %cutin=0.1 %cutout=0.1
New PVSystem.PV_92 phases=1 bus1=G2001SL9500_N284284_sec_2.2 kV=0.24 kVA=4.3586 irradiance=1 Pmpp=3.6321 %cutin=0.1 %cutout=0.1
New PVSystem.PV_93 phases=1 bus1=G2001TB6700_N274269_sec_1.3 kV=0.24 kVA=3.36 irradiance=1 Pmpp=2.8 %cutin=0.1 %cutout=0.1
New PVSystem.PV_94 phases=1 bus1=G2001TE3800_N274352_sec_4.3 kV=0.24 kVA=4.4645 irradiance=1 Pmpp=3.7204 %cutin=0.1 %cutout=0.1
New PVSystem.PV_95 phases=1 bus1=G2001TG2100_N284104_sec_4.3 kV=0.24 kVA=3.36 irradiance=1 Pmpp=2.8 %cutin=0.1 %cutout=0.1
New PVSystem.PV_96 phases=1 bus1=G2001VH9900_N284172_sec_4.3 kV=0.24 kVA=6.6 irradiance=1 Pmpp=5.5 %cutin=0.1 %cutout=0.1
New PVSystem.PV_97 phases=1 bus1=G2001WL3500_N284250_sec_2.2 kV=0.24 kVA=5.76 irradiance=1 Pmpp=4.8 %cutin=0.1 %cutout=0.1
New PVSystem.PV_98 phases=1 bus1=G2100BG5600_N283598_sec_3.3 kV=0.24 kVA=3.24 irradiance=1 Pmpp=2.7 %cutin=0.1 %cutout=0.1
New PVSystem.PV_99 phases=1 bus1=G2100CG0300_N283590_sec_10.3 kV=0.24 kVA=4.32 irradiance=1 Pmpp=3.6 %cutin=0.1 %cutout=0.1
New PVSystem.PV_100 phases=1 bus1=G2100CH7400_N283632_sec_12.3 kV=0.24 kVA=2.4 irradiance=1 Pmpp=2 %cutin=0.1 %cutout=0.1
New PVSystem.PV_101 phases=1 bus1=G2100CH7400_N283632_sec_21.3 kV=0.24 kVA=1.08 irradiance=1 Pmpp=0.9 %cutin=0.1 %cutout=0.1
New PVSystem.PV_102 phases=1 bus1=G2100CM0100_N283805_sec_1.1 kV=0.24 kVA=6.72 irradiance=1 Pmpp=5.6 %cutin=0.1 %cutout=0.1
New PVSystem.PV_103 phases=1 bus1=G2100CN4000_N283847_sec_7.3 kV=0.24 kVA=3.84 irradiance=1 Pmpp=3.2 %cutin=0.1 %cutout=0.1
New PVSystem.PV_104 phases=1 bus1=G2100DK1500_N283758_sec_4.2 kV=0.24 kVA=8.747 irradiance=1 Pmpp=7.2892 %cutin=0.1 %cutout=0.1
New PVSystem.PV_105 phases=1 bus1=G2100DN4800_N283861_sec_33.3 kV=0.24 kVA=0.72 irradiance=1 Pmpp=0.6 %cutin=0.1 %cutout=0.1
New PVSystem.PV_106 phases=1 bus1=G2100EK2800_N292334_sec_7.2 kV=0.24 kVA=6.24 irradiance=1 Pmpp=5.2 %cutin=0.1 %cutout=0.1
New PVSystem.PV_107 phases=1 bus1=G2100EN2200_N292457_sec_2.3 kV=0.24 kVA=4.32 irradiance=1 Pmpp=3.6 %cutin=0.1 %cutout=0.1
New PVSystem.PV_108 phases=1 bus1=G2100EN8600_N292479_sec_13.3 kV=0.24 kVA=2.16 irradiance=1 Pmpp=1.8 %cutin=0.1 %cutout=0.1
New PVSystem.PV_109 phases=1 bus1=G2100EO1300_N292510_sec_9.3 kV=0.24 kVA=2.16 irradiance=1 Pmpp=1.8 %cutin=0.1 %cutout=0.1
New PVSystem.PV_110 phases=3 conn = delta bus1=G2100FG0000_N292260_sec_3.1.2.3 kV=0.48 kVA=42.96 irradiance=1 Pmpp=35.8 %cutin=0.1 %cutout=0.1
New PVSystem.PV_111 phases=3 conn = delta bus1=G2100FG1700_N292304_sec_5.1.2.3 kV=0.48 kVA=12.6 irradiance=1 Pmpp=10.5 %cutin=0.1 %cutout=0.1
New PVSystem.PV_112 phases=3 conn = delta bus1=G2100FG1700_N292304_sec_10.1.2.3 kV=0.48 kVA=39.12 irradiance=1 Pmpp=32.6 %cutin=0.1 %cutout=0.1
New PVSystem.PV_113 phases=1 bus1=G2100FI2200_N292320_sec_2.2 kV=0.24 kVA=5.1051 irradiance=1 Pmpp=4.2542 %cutin=0.1 %cutout=0.1
New PVSystem.PV_114 phases=3 conn = delta bus1=G2100FJ3800_N292380_sec_10.1.2.3 kV=0.48 kVA=7.44 irradiance=1 Pmpp=6.2 %cutin=0.1 %cutout=0.1
New PVSystem.PV_115 phases=3 conn = delta bus1=G2100FJ4400_N292396_sec_2.1.2.3 kV=0.48 kVA=12 irradiance=1 Pmpp=10 %cutin=0.1 %cutout=0.1
New PVSystem.PV_116 phases=3 conn = delta bus1=G2100FJ4400_N292396_sec_5.1.2.3 kV=0.48 kVA=10.32 irradiance=1 Pmpp=8.6 %cutin=0.1 %cutout=0.1
New PVSystem.PV_117 phases=1 bus1=G2100FL0800_N292417_sec_3.3 kV=0.24 kVA=5.4 irradiance=1 Pmpp=4.5 %cutin=0.1 %cutout=0.1
New PVSystem.PV_118 phases=1 bus1=G2100GM9700_N292423_sec_7.3 kV=0.24 kVA=2.52 irradiance=1 Pmpp=2.1 %cutin=0.1 %cutout=0.1
New PVSystem.PV_119 phases=1 bus1=G2100GN0400_N292471_sec_12.1 kV=0.24 kVA=2.64 irradiance=1 Pmpp=2.2 %cutin=0.1 %cutout=0.1
New PVSystem.PV_120 phases=1 bus1=G2100HM3200_N292420_sec_7.3 kV=0.24 kVA=0.36 irradiance=1 Pmpp=0.3 %cutin=0.1 %cutout=0.1
New PVSystem.PV_121 phases=1 bus1=G2100HM3200_N292420_sec_20.3 kV=0.24 kVA=0.36 irradiance=1 Pmpp=0.3 %cutin=0.1 %cutout=0.1
New PVSystem.PV_122 phases=1 bus1=G2100HM3200_N292420_sec_34.3 kV=0.24 kVA=5.52 irradiance=1 Pmpp=4.6 %cutin=0.1 %cutout=0.1
New PVSystem.PV_123 phases=1 bus1=G2100HM9900_N292433_sec_7.3 kV=0.24 kVA=1.8 irradiance=1 Pmpp=1.5 %cutin=0.1 %cutout=0.1
New PVSystem.PV_124 phases=1 bus1=G2100HN5600_N292453_sec_66.3 kV=0.24 kVA=2.28 irradiance=1 Pmpp=1.9 %cutin=0.1 %cutout=0.1
New PVSystem.PV_125 phases=1 bus1=G2100IL1000_N292412_sec_30.3 kV=0.24 kVA=2.16 irradiance=1 Pmpp=1.8 %cutin=0.1 %cutout=0.1
New PVSystem.PV_126 phases=1 bus1=G2100IM6700_N292430_sec_2.3 kV=0.24 kVA=3 irradiance=1 Pmpp=2.5 %cutin=0.1 %cutout=0.1
New PVSystem.PV_127 phases=1 bus1=G2100IN7700_N292438_sec_27.3 kV=0.24 kVA=2.04 irradiance=1 Pmpp=1.7 %cutin=0.1 %cutout=0.1
New PVSystem.PV_128 phases=1 bus1=G2100QP2300_N300614_sec_2.1 kV=0.24 kVA=3.24 irradiance=1 Pmpp=2.7 %cutin=0.1 %cutout=0.1
New PVSystem.PV_129 phases=1 bus1=G2100RM5200_N312343_sec_11.3 kV=0.24 kVA=5.76 irradiance=1 Pmpp=4.8 %cutin=0.1 %cutout=0.1
New PVSystem.PV_130 phases=1 bus1=G2100RO8000_N312436_sec_2.3 kV=0.24 kVA=4.08 irradiance=1 Pmpp=3.4 %cutin=0.1 %cutout=0.1
New PVSystem.PV_131 phases=1 bus1=G2101AC9800_N283938_sec_4.3 kV=0.24 kVA=5.88 irradiance=1 Pmpp=4.9 %cutin=0.1 %cutout=0.1
New PVSystem.PV_132 phases=1 bus1=G2101AF2800_N284107_sec_1.3 kV=0.24 kVA=5.64 irradiance=1 Pmpp=4.7 %cutin=0.1 %cutout=0.1
New PVSystem.PV_133 phases=1 bus1=G2101AI2000_N284180_sec_2.3 kV=0.24 kVA=6 irradiance=1 Pmpp=5 %cutin=0.1 %cutout=0.1
New PVSystem.PV_134 phases=1 bus1=G2101AK7700_N284223_sec_3.1 kV=0.24 kVA=5.64 irradiance=1 Pmpp=4.7 %cutin=0.1 %cutout=0.1
New PVSystem.PV_135 phases=1 bus1=G2101BC6900_N283995_sec_3.2 kV=0.24 kVA=10.5449 irradiance=1 Pmpp=8.7874 %cutin=0.1 %cutout=0.1
New PVSystem.PV_136 phases=1 bus1=G2101CC3700_N283974_sec_3.3 kV=0.24 kVA=3.72 irradiance=1 Pmpp=3.1 %cutin=0.1 %cutout=0.1
New PVSystem.PV_137 phases=1 bus1=G2101DC3900_N283999_sec_2.2 kV=0.24 kVA=11.0803 irradiance=1 Pmpp=9.2336 %cutin=0.1 %cutout=0.1
New PVSystem.PV_138 phases=1 bus1=G2101ED9700_N292597_sec_5.1 kV=0.24 kVA=6.96 irradiance=1 Pmpp=5.8 %cutin=0.1 %cutout=0.1
New PVSystem.PV_139 phases=1 bus1=G2101EH3000_N292742_sec_1.2 kV=0.24 kVA=10.92 irradiance=1 Pmpp=9.1 %cutin=0.1 %cutout=0.1
New PVSystem.PV_140 phases=1 bus1=G2101FD9100_N292643_sec_1.1 kV=0.24 kVA=4.44 irradiance=1 Pmpp=3.7 %cutin=0.1 %cutout=0.1
New PVSystem.PV_141 phases=3 conn = delta bus1=G2101GA6800_N292554_sec_6.1.2.3 kV=0.48 kVA=19.68 irradiance=1 Pmpp=16.4 %cutin=0.1 %cutout=0.1
New PVSystem.PV_142 phases=1 bus1=G2101GC3200_N292623_sec_9.1 kV=0.24 kVA=1.56 irradiance=1 Pmpp=1.3 %cutin=0.1 %cutout=0.1
New PVSystem.PV_143 phases=1 bus1=G2101GM7700_N292843_sec_2.2 kV=0.24 kVA=5.4 irradiance=1 Pmpp=4.5 %cutin=0.1 %cutout=0.1
New PVSystem.PV_144 phases=1 bus1=G2101HD1100_N292645_sec_17.1 kV=0.24 kVA=2.4 irradiance=1 Pmpp=2 %cutin=0.1 %cutout=0.1
New PVSystem.PV_145 phases=1 bus1=G2101HD3500_N292652_sec_1.1 kV=0.24 kVA=2.88 irradiance=1 Pmpp=2.4 %cutin=0.1 %cutout=0.1
New PVSystem.PV_146 phases=1 bus1=G2101HD3500_N292652_sec_15.1 kV=0.24 kVA=3.6 irradiance=1 Pmpp=3 %cutin=0.1 %cutout=0.1
New PVSystem.PV_147 phases=1 bus1=G2101KA2300_N300631_sec_21.1 kV=0.24 kVA=3.6 irradiance=1 Pmpp=3 %cutin=0.1 %cutout=0.1
New PVSystem.PV_148 phases=1 bus1=G2101KA3900_N300679_sec_4.1 kV=0.24 kVA=2.76 irradiance=1 Pmpp=2.3 %cutin=0.1 %cutout=0.1
New PVSystem.PV_149 phases=1 bus1=G2101KA6200_N300623_sec_21.1 kV=0.24 kVA=3.72 irradiance=1 Pmpp=3.1 %cutin=0.1 %cutout=0.1
New PVSystem.PV_150 phases=1 bus1=G2101OA2300_N300690_sec_3.3 kV=0.24 kVA=3.72 irradiance=1 Pmpp=3.1 %cutin=0.1 %cutout=0.1
New PVSystem.PV_151 phases=1 bus1=G2101OB6900_N300737_sec_1.3 kV=0.24 kVA=2.64 irradiance=1 Pmpp=2.2 %cutin=0.1 %cutout=0.1
New PVSystem.PV_152 phases=1 bus1=G2101QA0800_N300664_sec_2.1 kV=0.24 kVA=5.76 irradiance=1 Pmpp=4.8 %cutin=0.1 %cutout=0.1
New PVSystem.PV_153 phases=1 bus1=G2101RA5400_N300653_sec_2.2 kV=0.24 kVA=5.76 irradiance=1 Pmpp=4.8 %cutin=0.1 %cutout=0.1
New PVSystem.PV_154 phases=1 bus1=G2101SA6800_N312536_sec_7.2 kV=0.24 kVA=2.28 irradiance=1 Pmpp=1.9 %cutin=0.1 %cutout=0.1
New PVSystem.PV_155 phases=1 bus1=G2102AD5000_N284351_sec_1.1 kV=0.24 kVA=6.1277 irradiance=1 Pmpp=5.1064 %cutin=0.1 %cutout=0.1
New PVSystem.PV_156 phases=1 bus1=G2000SN2500_N274191_sec_1.3 kV=0.24 kVA=0 irradiance=1 Pmpp=0 %cutin=0.1 %cutout=0.1
New PVSystem.PV_157 phases=1 bus1=G2000SN8800_N274200_sec_1.3 kV=0.24 kVA=4.92 irradiance=1 Pmpp=4.1 %cutin=0.1 %cutout=0.1
New PVSystem.PV_158 phases=1 bus1=G2000TN4400_N283873_sec_1.3 kV=0.24 kVA=1.92 irradiance=1 Pmpp=1.6 %cutin=0.1 %cutout=0.1
New PVSystem.PV_159 phases=1 bus1=G2000UH9400_N283633_sec_3.3 kV=0.24 kVA=2.52 irradiance=1 Pmpp=2.1 %cutin=0.1 %cutout=0.1
New PVSystem.PV_160 phases=1 bus1=G2000UK1100_N283753_sec_4.3 kV=0.24 kVA=4.2 irradiance=1 Pmpp=3.5 %cutin=0.1 %cutout=0.1
New PVSystem.PV_161 phases=1 bus1=G2000UL1900_N283810_sec_1.2 kV=0.24 kVA=7.2768 irradiance=1 Pmpp=6.064 %cutin=0.1 %cutout=0.1
New PVSystem.PV_162 phases=1 bus1=G2000WH5900_N283675_sec_1.2 kV=0.24 kVA=6.24 irradiance=1 Pmpp=5.2 %cutin=0.1 %cutout=0.1
New PVSystem.PV_163 phases=1 bus1=G2000WI4400_N283710_sec_2.2 kV=0.24 kVA=6 irradiance=1 Pmpp=5 %cutin=0.1 %cutout=0.1
New PVSystem.PV_164 phases=1 bus1=G2000WL4100_N283765_sec_1.2 kV=0.24 kVA=5.4 irradiance=1 Pmpp=4.5 %cutin=0.1 %cutout=0.1
New PVSystem.PV_165 phases=1 bus1=G2001SA1700_N274258_sec_2.3 kV=0.24 kVA=8.16 irradiance=1 Pmpp=6.8 %cutin=0.1 %cutout=0.1
New PVSystem.PV_166 phases=1 bus1=G2001UB2100_N283965_sec_1.3 kV=0.24 kVA=8.52 irradiance=1 Pmpp=7.1 %cutin=0.1 %cutout=0.1
New PVSystem.PV_167 phases=1 bus1=G2001UB4400_N283904_sec_8.3 kV=0.24 kVA=3 irradiance=1 Pmpp=2.5 %cutin=0.1 %cutout=0.1
New PVSystem.PV_168 phases=1 bus1=G2001VD8000_N283989_sec_2.3 kV=0.24 kVA=3.36 irradiance=1 Pmpp=2.8 %cutin=0.1 %cutout=0.1
New PVSystem.PV_169 phases=1 bus1=G2001VK4000_N284221_sec_2.2 kV=0.24 kVA=11.52 irradiance=1 Pmpp=9.6 %cutin=0.1 %cutout=0.1
New PVSystem.PV_170 phases=1 bus1=G2001XE2600_N284069_sec_3.1 kV=0.24 kVA=4.32 irradiance=1 Pmpp=3.6 %cutin=0.1 %cutout=0.1
New PVSystem.PV_171 phases=1 bus1=G2001YA0800_N283921_sec_1.3 kV=0.24 kVA=4.2 irradiance=1 Pmpp=3.5 %cutin=0.1 %cutout=0.1
New PVSystem.PV_172 phases=1 bus1=G2002AD4400_N284341_sec_1.1 kV=0.24 kVA=11.52 irradiance=1 Pmpp=9.6 %cutin=0.1 %cutout=0.1
New PVSystem.PV_173 phases=1 bus1=G2002AF2300_N284383_sec_3.1 kV=0.24 kVA=11.28 irradiance=1 Pmpp=9.4 %cutin=0.1 %cutout=0.1
New PVSystem.PV_174 phases=1 bus1=G2100AE4800_N283558_sec_3.3 kV=0.24 kVA=3.12 irradiance=1 Pmpp=2.6 %cutin=0.1 %cutout=0.1
New PVSystem.PV_175 phases=1 bus1=G2100BJ0700_N283696_sec_9.2 kV=0.24 kVA=8.04 irradiance=1 Pmpp=6.7 %cutin=0.1 %cutout=0.1
New PVSystem.PV_176 phases=1 bus1=G2100BJ0700_N283696_sec_11.2 kV=0.24 kVA=6.1921 irradiance=1 Pmpp=5.1601 %cutin=0.1 %cutout=0.1
New PVSystem.PV_177 phases=1 bus1=G2100BJ1200_N283713_sec_2.1 kV=0.24 kVA=0 irradiance=1 Pmpp=0 %cutin=0.1 %cutout=0.1
New PVSystem.PV_178 phases=1 bus1=G2100CH1800_N1385522_sec_1.3 kV=0.24 kVA=1.92 irradiance=1 Pmpp=1.6 %cutin=0.1 %cutout=0.1
New PVSystem.PV_179 phases=1 bus1=G2100CN9200_N283841_sec_4.3 kV=0.24 kVA=2.64 irradiance=1 Pmpp=2.2 %cutin=0.1 %cutout=0.1
New PVSystem.PV_180 phases=1 bus1=G2100DN3000_N283838_sec_18.3 kV=0.24 kVA=1.44 irradiance=1 Pmpp=1.2 %cutin=0.1 %cutout=0.1
New PVSystem.PV_181 phases=1 bus1=G2100EK2800_N292334_sec_6.2 kV=0.24 kVA=6.36 irradiance=1 Pmpp=5.3 %cutin=0.1 %cutout=0.1
New PVSystem.PV_182 phases=1 bus1=G2100EN2200_N292457_sec_11.3 kV=0.24 kVA=3 irradiance=1 Pmpp=2.5 %cutin=0.1 %cutout=0.1
New PVSystem.PV_183 phases=3 conn = delta bus1=G2100FH3200_N292302_sec_5.1.2.3 kV=0.48 kVA=10.2 irradiance=1 Pmpp=8.5 %cutin=0.1 %cutout=0.1
New PVSystem.PV_184 phases=3 conn = delta bus1=G2100FJ3800_N292380_sec_3.1.2.3 kV=0.48 kVA=9.84 irradiance=1 Pmpp=8.2 %cutin=0.1 %cutout=0.1
New PVSystem.PV_185 phases=1 bus1=G2100FO1700_N292522_sec_5.3 kV=0.24 kVA=3.12 irradiance=1 Pmpp=2.6 %cutin=0.1 %cutout=0.1
New PVSystem.PV_186 phases=3 conn = delta bus1=G2100GJ9100_N292332_sec_2.1.2.3 kV=0.48 kVA=25.32 irradiance=1 Pmpp=21.1 %cutin=0.1 %cutout=0.1
New PVSystem.PV_187 phases=1 bus1=G2100GM9700_N292423_sec_15.3 kV=0.24 kVA=0.48 irradiance=1 Pmpp=0.4 %cutin=0.1 %cutout=0.1
New PVSystem.PV_188 phases=1 bus1=G2100GM9700_N292423_sec_33.3 kV=0.24 kVA=1.68 irradiance=1 Pmpp=1.4 %cutin=0.1 %cutout=0.1
New PVSystem.PV_189 phases=1 bus1=G2100GN2400_N292466_sec_5.1 kV=0.24 kVA=4.8 irradiance=1 Pmpp=4 %cutin=0.1 %cutout=0.1
New PVSystem.PV_190 phases=1 bus1=G2100GN7300_N292464_sec_4.1 kV=0.24 kVA=1.68 irradiance=1 Pmpp=1.4 %cutin=0.1 %cutout=0.1
New PVSystem.PV_191 phases=1 bus1=G2100HM3200_N292420_sec_6.3 kV=0.24 kVA=0.36 irradiance=1 Pmpp=0.3 %cutin=0.1 %cutout=0.1
New PVSystem.PV_192 phases=1 bus1=G2100HM3200_N292420_sec_14.3 kV=0.24 kVA=2.16 irradiance=1 Pmpp=1.8 %cutin=0.1 %cutout=0.1
New PVSystem.PV_193 phases=1 bus1=G2100HM3200_N292420_sec_37.3 kV=0.24 kVA=2.04 irradiance=1 Pmpp=1.7 %cutin=0.1 %cutout=0.1
New PVSystem.PV_194 phases=1 bus1=G2100HM9900_N292433_sec_15.3 kV=0.24 kVA=2.04 irradiance=1 Pmpp=1.7 %cutin=0.1 %cutout=0.1
New PVSystem.PV_195 phases=1 bus1=G2100HM9900_N292433_sec_37.3 kV=0.24 kVA=4.32 irradiance=1 Pmpp=3.6 %cutin=0.1 %cutout=0.1
New PVSystem.PV_196 phases=1 bus1=G2100HN5600_N292453_sec_71.3 kV=0.24 kVA=4.32 irradiance=1 Pmpp=3.6 %cutin=0.1 %cutout=0.1
New PVSystem.PV_197 phases=1 bus1=G2100IL1000_N292412_sec_21.3 kV=0.24 kVA=2.52 irradiance=1 Pmpp=2.1 %cutin=0.1 %cutout=0.1
New PVSystem.PV_198 phases=1 bus1=G2100IL1000_N292412_sec_28.3 kV=0.24 kVA=2.88 irradiance=1 Pmpp=2.4 %cutin=0.1 %cutout=0.1
New PVSystem.PV_199 phases=1 bus1=G2100IN2700_N292475_sec_12.3 kV=0.24 kVA=1.68 irradiance=1 Pmpp=1.4 %cutin=0.1 %cutout=0.1
New PVSystem.PV_200 phases=1 bus1=G2100IN2700_N292475_sec_15.3 kV=0.24 kVA=2.16 irradiance=1 Pmpp=1.8 %cutin=0.1 %cutout=0.1
...
